<?xml version="1.0" ?>
<routes>
  <vType id="taxi" accel="2.6" decel="4.5" sigma="0.5" length="5" minGap="2.5" maxSpeed="13.89" color="255,165,0"/>
  <route id="r0" edges="e0_0_to_0_1 e0_1_to_0_2"/>
  <route id="r1" edges="e1_0_to_1_1 e1_1_to_1_2"/>
  <vehicle id="v0" type="taxi" route="r0" depart="0.0"/>
  <vehicle id="v1" type="taxi" route="r0" depart="0.5"/>
  <vehicle id="v2" type="taxi" route="r0" depart="1.0"/>
  <vehicle id="v3" type="taxi" route="r0" depart="1.5"/>
  <vehicle id="v4" type="taxi" route="r0" depart="2.0"/>
  <vehicle id="v5" type="taxi" route="r0" depart="2.5"/>
  <vehicle id="v6" type="taxi" route="r0" depart="3.0"/>
  <vehicle id="v7" type="taxi" route="r0" depart="3.5"/>
  <vehicle id="v8" type="taxi" route="r0" depart="4.0"/>
  <vehicle id="v9" type="taxi" route="r0" depart="4.5"/>
  <vehicle id="v10" type="taxi" route="r0" depart="5.0"/>
  <vehicle id="v11" type="taxi" route="r0" depart="5.5"/>
  <vehicle id="v12" type="taxi" route="r0" depart="6.0"/>
  <vehicle id="v13" type="taxi" route="r0" depart="6.5"/>
  <vehicle id="v14" type="taxi" route="r0" depart="7.0"/>
  <vehicle id="v15" type="taxi" route="r0" depart="7.5"/>
  <vehicle id="v16" type="taxi" route="r0" depart="8.0"/>
  <vehicle id="v17" type="taxi" route="r0" depart="8.5"/>
  <vehicle id="v18" type="taxi" route="r0" depart="9.0"/>
  <vehicle id="v19" type="taxi" route="r0" depart="9.5"/>
  <vehicle id="v20" type="taxi" route="r0" depart="10.0"/>
  <vehicle id="v21" type="taxi" route="r0" depart="10.5"/>
  <vehicle id="v22" type="taxi" route="r0" depart="11.0"/>
  <vehicle id="v23" type="taxi" route="r0" depart="11.5"/>
  <vehicle id="v24" type="taxi" route="r0" depart="12.0"/>
  <vehicle id="v25" type="taxi" route="r0" depart="12.5"/>
  <vehicle id="v26" type="taxi" route="r0" depart="13.0"/>
  <vehicle id="v27" type="taxi" route="r0" depart="13.5"/>
  <vehicle id="v28" type="taxi" route="r0" depart="14.0"/>
  <vehicle id="v29" type="taxi" route="r0" depart="14.5"/>
  <vehicle id="v30" type="taxi" route="r0" depart="15.0"/>
  <vehicle id="v31" type="taxi" route="r0" depart="15.5"/>
  <vehicle id="v32" type="taxi" route="r0" depart="16.0"/>
  <vehicle id="v33" type="taxi" route="r0" depart="16.5"/>
  <vehicle id="v34" type="taxi" route="r0" depart="17.0"/>
  <vehicle id="v35" type="taxi" route="r0" depart="17.5"/>
  <vehicle id="v36" type="taxi" route="r0" depart="18.0"/>
  <vehicle id="v37" type="taxi" route="r0" depart="18.5"/>
  <vehicle id="v38" type="taxi" route="r0" depart="19.0"/>
  <vehicle id="v39" type="taxi" route="r0" depart="19.5"/>
  <vehicle id="v40" type="taxi" route="r0" depart="20.0"/>
  <vehicle id="v41" type="taxi" route="r0" depart="20.5"/>
  <vehicle id="v42" type="taxi" route="r0" depart="21.0"/>
  <vehicle id="v43" type="taxi" route="r0" depart="21.5"/>
  <vehicle id="v44" type="taxi" route="r0" depart="22.0"/>
  <vehicle id="v45" type="taxi" route="r0" depart="22.5"/>
  <vehicle id="v46" type="taxi" route="r0" depart="23.0"/>
  <vehicle id="v47" type="taxi" route="r0" depart="23.5"/>
  <vehicle id="v48" type="taxi" route="r0" depart="24.0"/>
  <vehicle id="v49" type="taxi" route="r0" depart="24.5"/>
  <vehicle id="v50" type="taxi" route="r0" depart="25.0"/>
  <vehicle id="v51" type="taxi" route="r0" depart="25.5"/>
  <vehicle id="v52" type="taxi" route="r0" depart="26.0"/>
  <vehicle id="v53" type="taxi" route="r0" depart="26.5"/>
  <vehicle id="v54" type="taxi" route="r0" depart="27.0"/>
  <vehicle id="v55" type="taxi" route="r0" depart="27.5"/>
  <vehicle id="v56" type="taxi" route="r0" depart="28.0"/>
  <vehicle id="v57" type="taxi" route="r0" depart="28.5"/>
  <vehicle id="v58" type="taxi" route="r0" depart="29.0"/>
  <vehicle id="v59" type="taxi" route="r0" depart="29.5"/>
  <vehicle id="v60" type="taxi" route="r0" depart="30.0"/>
  <vehicle id="v61" type="taxi" route="r0" depart="30.5"/>
  <vehicle id="v62" type="taxi" route="r0" depart="31.0"/>
  <vehicle id="v63" type="taxi" route="r0" depart="31.5"/>
  <vehicle id="v64" type="taxi" route="r0" depart="32.0"/>
  <vehicle id="v65" type="taxi" route="r0" depart="32.5"/>
  <vehicle id="v66" type="taxi" route="r0" depart="33.0"/>
  <vehicle id="v67" type="taxi" route="r0" depart="33.5"/>
  <vehicle id="v68" type="taxi" route="r0" depart="34.0"/>
  <vehicle id="v69" type="taxi" route="r0" depart="34.5"/>
  <vehicle id="v70" type="taxi" route="r0" depart="35.0"/>
  <vehicle id="v71" type="taxi" route="r0" depart="35.5"/>
  <vehicle id="v72" type="taxi" route="r0" depart="36.0"/>
  <vehicle id="v73" type="taxi" route="r0" depart="36.5"/>
  <vehicle id="v74" type="taxi" route="r0" depart="37.0"/>
  <vehicle id="v75" type="taxi" route="r0" depart="37.5"/>
  <vehicle id="v76" type="taxi" route="r0" depart="38.0"/>
  <vehicle id="v77" type="taxi" route="r0" depart="38.5"/>
  <vehicle id="v78" type="taxi" route="r0" depart="39.0"/>
  <vehicle id="v79" type="taxi" route="r0" depart="39.5"/>
  <vehicle id="v80" type="taxi" route="r0" depart="40.0"/>
  <vehicle id="v81" type="taxi" route="r0" depart="40.5"/>
  <vehicle id="v82" type="taxi" route="r0" depart="41.0"/>
  <vehicle id="v83" type="taxi" route="r0" depart="41.5"/>
  <vehicle id="v84" type="taxi" route="r0" depart="42.0"/>
  <vehicle id="v85" type="taxi" route="r0" depart="42.5"/>
  <vehicle id="v86" type="taxi" route="r0" depart="43.0"/>
  <vehicle id="v87" type="taxi" route="r0" depart="43.5"/>
  <vehicle id="v88" type="taxi" route="r0" depart="44.0"/>
  <vehicle id="v89" type="taxi" route="r0" depart="44.5"/>
  <vehicle id="v90" type="taxi" route="r0" depart="45.0"/>
  <vehicle id="v91" type="taxi" route="r0" depart="45.5"/>
  <vehicle id="v92" type="taxi" route="r0" depart="46.0"/>
  <vehicle id="v93" type="taxi" route="r0" depart="46.5"/>
  <vehicle id="v94" type="taxi" route="r0" depart="47.0"/>
  <vehicle id="v95" type="taxi" route="r0" depart="47.5"/>
  <vehicle id="v96" type="taxi" route="r0" depart="48.0"/>
  <vehicle id="v97" type="taxi" route="r0" depart="48.5"/>
  <vehicle id="v98" type="taxi" route="r0" depart="49.0"/>
  <vehicle id="v99" type="taxi" route="r0" depart="49.5"/>
  <vehicle id="v100" type="taxi" route="r0" depart="50.0"/>
  <vehicle id="v101" type="taxi" route="r0" depart="50.5"/>
  <vehicle id="v102" type="taxi" route="r0" depart="51.0"/>
  <vehicle id="v103" type="taxi" route="r0" depart="51.5"/>
  <vehicle id="v104" type="taxi" route="r0" depart="52.0"/>
  <vehicle id="v105" type="taxi" route="r0" depart="52.5"/>
  <vehicle id="v106" type="taxi" route="r0" depart="53.0"/>
  <vehicle id="v107" type="taxi" route="r0" depart="53.5"/>
  <vehicle id="v108" type="taxi" route="r0" depart="54.0"/>
  <vehicle id="v109" type="taxi" route="r0" depart="54.5"/>
  <vehicle id="v110" type="taxi" route="r0" depart="55.0"/>
  <vehicle id="v111" type="taxi" route="r0" depart="55.5"/>
  <vehicle id="v112" type="taxi" route="r0" depart="56.0"/>
  <vehicle id="v113" type="taxi" route="r0" depart="56.5"/>
  <vehicle id="v114" type="taxi" route="r0" depart="57.0"/>
  <vehicle id="v115" type="taxi" route="r0" depart="57.5"/>
  <vehicle id="v116" type="taxi" route="r0" depart="58.0"/>
  <vehicle id="v117" type="taxi" route="r0" depart="58.5"/>
  <vehicle id="v118" type="taxi" route="r0" depart="59.0"/>
  <vehicle id="v119" type="taxi" route="r0" depart="59.5"/>
  <vehicle id="v120" type="taxi" route="r0" depart="60.0"/>
  <vehicle id="v121" type="taxi" route="r0" depart="60.5"/>
  <vehicle id="v122" type="taxi" route="r0" depart="61.0"/>
  <vehicle id="v123" type="taxi" route="r0" depart="61.5"/>
  <vehicle id="v124" type="taxi" route="r0" depart="62.0"/>
  <vehicle id="v125" type="taxi" route="r0" depart="62.5"/>
  <vehicle id="v126" type="taxi" route="r0" depart="63.0"/>
  <vehicle id="v127" type="taxi" route="r0" depart="63.5"/>
  <vehicle id="v128" type="taxi" route="r0" depart="64.0"/>
  <vehicle id="v129" type="taxi" route="r0" depart="64.5"/>
  <vehicle id="v130" type="taxi" route="r0" depart="65.0"/>
  <vehicle id="v131" type="taxi" route="r0" depart="65.5"/>
  <vehicle id="v132" type="taxi" route="r0" depart="66.0"/>
  <vehicle id="v133" type="taxi" route="r0" depart="66.5"/>
  <vehicle id="v134" type="taxi" route="r0" depart="67.0"/>
  <vehicle id="v135" type="taxi" route="r0" depart="67.5"/>
  <vehicle id="v136" type="taxi" route="r0" depart="68.0"/>
  <vehicle id="v137" type="taxi" route="r0" depart="68.5"/>
  <vehicle id="v138" type="taxi" route="r0" depart="69.0"/>
  <vehicle id="v139" type="taxi" route="r0" depart="69.5"/>
  <vehicle id="v140" type="taxi" route="r0" depart="70.0"/>
  <vehicle id="v141" type="taxi" route="r0" depart="70.5"/>
  <vehicle id="v142" type="taxi" route="r0" depart="71.0"/>
  <vehicle id="v143" type="taxi" route="r0" depart="71.5"/>
  <vehicle id="v144" type="taxi" route="r0" depart="72.0"/>
  <vehicle id="v145" type="taxi" route="r0" depart="72.5"/>
  <vehicle id="v146" type="taxi" route="r0" depart="73.0"/>
  <vehicle id="v147" type="taxi" route="r0" depart="73.5"/>
  <vehicle id="v148" type="taxi" route="r0" depart="74.0"/>
  <vehicle id="v149" type="taxi" route="r0" depart="74.5"/>
  <vehicle id="v150" type="taxi" route="r0" depart="75.0"/>
  <vehicle id="v151" type="taxi" route="r0" depart="75.5"/>
  <vehicle id="v152" type="taxi" route="r0" depart="76.0"/>
  <vehicle id="v153" type="taxi" route="r0" depart="76.5"/>
  <vehicle id="v154" type="taxi" route="r0" depart="77.0"/>
  <vehicle id="v155" type="taxi" route="r0" depart="77.5"/>
  <vehicle id="v156" type="taxi" route="r0" depart="78.0"/>
  <vehicle id="v157" type="taxi" route="r0" depart="78.5"/>
  <vehicle id="v158" type="taxi" route="r0" depart="79.0"/>
  <vehicle id="v159" type="taxi" route="r0" depart="79.5"/>
  <vehicle id="v160" type="taxi" route="r0" depart="80.0"/>
  <vehicle id="v161" type="taxi" route="r0" depart="80.5"/>
  <vehicle id="v162" type="taxi" route="r0" depart="81.0"/>
  <vehicle id="v163" type="taxi" route="r0" depart="81.5"/>
  <vehicle id="v164" type="taxi" route="r0" depart="82.0"/>
  <vehicle id="v165" type="taxi" route="r0" depart="82.5"/>
  <vehicle id="v166" type="taxi" route="r0" depart="83.0"/>
  <vehicle id="v167" type="taxi" route="r0" depart="83.5"/>
  <vehicle id="v168" type="taxi" route="r0" depart="84.0"/>
  <vehicle id="v169" type="taxi" route="r0" depart="84.5"/>
  <vehicle id="v170" type="taxi" route="r0" depart="85.0"/>
  <vehicle id="v171" type="taxi" route="r0" depart="85.5"/>
  <vehicle id="v172" type="taxi" route="r0" depart="86.0"/>
  <vehicle id="v173" type="taxi" route="r0" depart="86.5"/>
  <vehicle id="v174" type="taxi" route="r0" depart="87.0"/>
  <vehicle id="v175" type="taxi" route="r0" depart="87.5"/>
  <vehicle id="v176" type="taxi" route="r0" depart="88.0"/>
  <vehicle id="v177" type="taxi" route="r0" depart="88.5"/>
  <vehicle id="v178" type="taxi" route="r0" depart="89.0"/>
  <vehicle id="v179" type="taxi" route="r0" depart="89.5"/>
  <vehicle id="v180" type="taxi" route="r0" depart="90.0"/>
  <vehicle id="v181" type="taxi" route="r0" depart="90.5"/>
  <vehicle id="v182" type="taxi" route="r0" depart="91.0"/>
  <vehicle id="v183" type="taxi" route="r0" depart="91.5"/>
  <vehicle id="v184" type="taxi" route="r0" depart="92.0"/>
  <vehicle id="v185" type="taxi" route="r0" depart="92.5"/>
  <vehicle id="v186" type="taxi" route="r0" depart="93.0"/>
  <vehicle id="v187" type="taxi" route="r0" depart="93.5"/>
  <vehicle id="v188" type="taxi" route="r0" depart="94.0"/>
  <vehicle id="v189" type="taxi" route="r0" depart="94.5"/>
  <vehicle id="v190" type="taxi" route="r0" depart="95.0"/>
  <vehicle id="v191" type="taxi" route="r0" depart="95.5"/>
  <vehicle id="v192" type="taxi" route="r0" depart="96.0"/>
  <vehicle id="v193" type="taxi" route="r0" depart="96.5"/>
  <vehicle id="v194" type="taxi" route="r0" depart="97.0"/>
  <vehicle id="v195" type="taxi" route="r0" depart="97.5"/>
  <vehicle id="v196" type="taxi" route="r0" depart="98.0"/>
  <vehicle id="v197" type="taxi" route="r0" depart="98.5"/>
  <vehicle id="v198" type="taxi" route="r0" depart="99.0"/>
  <vehicle id="v199" type="taxi" route="r0" depart="99.5"/>
  <vehicle id="v200" type="taxi" route="r0" depart="100.0"/>
  <vehicle id="v201" type="taxi" route="r0" depart="100.5"/>
  <vehicle id="v202" type="taxi" route="r0" depart="101.0"/>
  <vehicle id="v203" type="taxi" route="r0" depart="101.5"/>
  <vehicle id="v204" type="taxi" route="r0" depart="102.0"/>
  <vehicle id="v205" type="taxi" route="r0" depart="102.5"/>
  <vehicle id="v206" type="taxi" route="r0" depart="103.0"/>
  <vehicle id="v207" type="taxi" route="r0" depart="103.5"/>
  <vehicle id="v208" type="taxi" route="r0" depart="104.0"/>
  <vehicle id="v209" type="taxi" route="r0" depart="104.5"/>
  <vehicle id="v210" type="taxi" route="r0" depart="105.0"/>
  <vehicle id="v211" type="taxi" route="r0" depart="105.5"/>
  <vehicle id="v212" type="taxi" route="r0" depart="106.0"/>
  <vehicle id="v213" type="taxi" route="r0" depart="106.5"/>
  <vehicle id="v214" type="taxi" route="r0" depart="107.0"/>
  <vehicle id="v215" type="taxi" route="r0" depart="107.5"/>
  <vehicle id="v216" type="taxi" route="r0" depart="108.0"/>
  <vehicle id="v217" type="taxi" route="r0" depart="108.5"/>
  <vehicle id="v218" type="taxi" route="r0" depart="109.0"/>
  <vehicle id="v219" type="taxi" route="r0" depart="109.5"/>
  <vehicle id="v220" type="taxi" route="r0" depart="110.0"/>
  <vehicle id="v221" type="taxi" route="r0" depart="110.5"/>
  <vehicle id="v222" type="taxi" route="r0" depart="111.0"/>
  <vehicle id="v223" type="taxi" route="r0" depart="111.5"/>
  <vehicle id="v224" type="taxi" route="r0" depart="112.0"/>
  <vehicle id="v225" type="taxi" route="r0" depart="112.5"/>
  <vehicle id="v226" type="taxi" route="r0" depart="113.0"/>
  <vehicle id="v227" type="taxi" route="r0" depart="113.5"/>
  <vehicle id="v228" type="taxi" route="r0" depart="114.0"/>
  <vehicle id="v229" type="taxi" route="r0" depart="114.5"/>
  <vehicle id="v230" type="taxi" route="r0" depart="115.0"/>
  <vehicle id="v231" type="taxi" route="r0" depart="115.5"/>
  <vehicle id="v232" type="taxi" route="r0" depart="116.0"/>
  <vehicle id="v233" type="taxi" route="r0" depart="116.5"/>
  <vehicle id="v234" type="taxi" route="r0" depart="117.0"/>
  <vehicle id="v235" type="taxi" route="r0" depart="117.5"/>
  <vehicle id="v236" type="taxi" route="r0" depart="118.0"/>
  <vehicle id="v237" type="taxi" route="r0" depart="118.5"/>
  <vehicle id="v238" type="taxi" route="r0" depart="119.0"/>
  <vehicle id="v239" type="taxi" route="r0" depart="119.5"/>
  <vehicle id="v240" type="taxi" route="r0" depart="120.0"/>
  <vehicle id="v241" type="taxi" route="r0" depart="120.5"/>
  <vehicle id="v242" type="taxi" route="r0" depart="121.0"/>
  <vehicle id="v243" type="taxi" route="r0" depart="121.5"/>
  <vehicle id="v244" type="taxi" route="r0" depart="122.0"/>
  <vehicle id="v245" type="taxi" route="r0" depart="122.5"/>
  <vehicle id="v246" type="taxi" route="r0" depart="123.0"/>
  <vehicle id="v247" type="taxi" route="r0" depart="123.5"/>
  <vehicle id="v248" type="taxi" route="r0" depart="124.0"/>
  <vehicle id="v249" type="taxi" route="r0" depart="124.5"/>
  <vehicle id="v250" type="taxi" route="r0" depart="125.0"/>
  <vehicle id="v251" type="taxi" route="r0" depart="125.5"/>
  <vehicle id="v252" type="taxi" route="r0" depart="126.0"/>
  <vehicle id="v253" type="taxi" route="r0" depart="126.5"/>
  <vehicle id="v254" type="taxi" route="r0" depart="127.0"/>
  <vehicle id="v255" type="taxi" route="r0" depart="127.5"/>
  <vehicle id="v256" type="taxi" route="r0" depart="128.0"/>
  <vehicle id="v257" type="taxi" route="r0" depart="128.5"/>
  <vehicle id="v258" type="taxi" route="r0" depart="129.0"/>
  <vehicle id="v259" type="taxi" route="r0" depart="129.5"/>
  <vehicle id="v260" type="taxi" route="r0" depart="130.0"/>
  <vehicle id="v261" type="taxi" route="r0" depart="130.5"/>
  <vehicle id="v262" type="taxi" route="r0" depart="131.0"/>
  <vehicle id="v263" type="taxi" route="r0" depart="131.5"/>
  <vehicle id="v264" type="taxi" route="r0" depart="132.0"/>
  <vehicle id="v265" type="taxi" route="r0" depart="132.5"/>
  <vehicle id="v266" type="taxi" route="r0" depart="133.0"/>
  <vehicle id="v267" type="taxi" route="r0" depart="133.5"/>
  <vehicle id="v268" type="taxi" route="r0" depart="134.0"/>
  <vehicle id="v269" type="taxi" route="r0" depart="134.5"/>
  <vehicle id="v270" type="taxi" route="r0" depart="135.0"/>
  <vehicle id="v271" type="taxi" route="r0" depart="135.5"/>
  <vehicle id="v272" type="taxi" route="r0" depart="136.0"/>
  <vehicle id="v273" type="taxi" route="r0" depart="136.5"/>
  <vehicle id="v274" type="taxi" route="r0" depart="137.0"/>
  <vehicle id="v275" type="taxi" route="r0" depart="137.5"/>
  <vehicle id="v276" type="taxi" route="r0" depart="138.0"/>
  <vehicle id="v277" type="taxi" route="r0" depart="138.5"/>
  <vehicle id="v278" type="taxi" route="r0" depart="139.0"/>
  <vehicle id="v279" type="taxi" route="r0" depart="139.5"/>
  <vehicle id="v280" type="taxi" route="r0" depart="140.0"/>
  <vehicle id="v281" type="taxi" route="r0" depart="140.5"/>
  <vehicle id="v282" type="taxi" route="r0" depart="141.0"/>
  <vehicle id="v283" type="taxi" route="r0" depart="141.5"/>
  <vehicle id="v284" type="taxi" route="r0" depart="142.0"/>
  <vehicle id="v285" type="taxi" route="r0" depart="142.5"/>
  <vehicle id="v286" type="taxi" route="r0" depart="143.0"/>
  <vehicle id="v287" type="taxi" route="r0" depart="143.5"/>
  <vehicle id="v288" type="taxi" route="r0" depart="144.0"/>
  <vehicle id="v289" type="taxi" route="r0" depart="144.5"/>
  <vehicle id="v290" type="taxi" route="r0" depart="145.0"/>
  <vehicle id="v291" type="taxi" route="r0" depart="145.5"/>
  <vehicle id="v292" type="taxi" route="r0" depart="146.0"/>
  <vehicle id="v293" type="taxi" route="r0" depart="146.5"/>
  <vehicle id="v294" type="taxi" route="r0" depart="147.0"/>
  <vehicle id="v295" type="taxi" route="r0" depart="147.5"/>
  <vehicle id="v296" type="taxi" route="r0" depart="148.0"/>
  <vehicle id="v297" type="taxi" route="r0" depart="148.5"/>
  <vehicle id="v298" type="taxi" route="r0" depart="149.0"/>
  <vehicle id="v299" type="taxi" route="r0" depart="149.5"/>
  <vehicle id="v300" type="taxi" route="r0" depart="150.0"/>
  <vehicle id="v301" type="taxi" route="r0" depart="150.5"/>
  <vehicle id="v302" type="taxi" route="r0" depart="151.0"/>
  <vehicle id="v303" type="taxi" route="r0" depart="151.5"/>
  <vehicle id="v304" type="taxi" route="r0" depart="152.0"/>
  <vehicle id="v305" type="taxi" route="r0" depart="152.5"/>
  <vehicle id="v306" type="taxi" route="r0" depart="153.0"/>
  <vehicle id="v307" type="taxi" route="r0" depart="153.5"/>
  <vehicle id="v308" type="taxi" route="r0" depart="154.0"/>
  <vehicle id="v309" type="taxi" route="r0" depart="154.5"/>
  <vehicle id="v310" type="taxi" route="r0" depart="155.0"/>
  <vehicle id="v311" type="taxi" route="r0" depart="155.5"/>
  <vehicle id="v312" type="taxi" route="r0" depart="156.0"/>
  <vehicle id="v313" type="taxi" route="r0" depart="156.5"/>
  <vehicle id="v314" type="taxi" route="r0" depart="157.0"/>
  <vehicle id="v315" type="taxi" route="r0" depart="157.5"/>
  <vehicle id="v316" type="taxi" route="r0" depart="158.0"/>
  <vehicle id="v317" type="taxi" route="r0" depart="158.5"/>
  <vehicle id="v318" type="taxi" route="r0" depart="159.0"/>
  <vehicle id="v319" type="taxi" route="r0" depart="159.5"/>
  <vehicle id="v320" type="taxi" route="r0" depart="160.0"/>
  <vehicle id="v321" type="taxi" route="r0" depart="160.5"/>
  <vehicle id="v322" type="taxi" route="r0" depart="161.0"/>
  <vehicle id="v323" type="taxi" route="r0" depart="161.5"/>
  <vehicle id="v324" type="taxi" route="r0" depart="162.0"/>
  <vehicle id="v325" type="taxi" route="r0" depart="162.5"/>
  <vehicle id="v326" type="taxi" route="r0" depart="163.0"/>
  <vehicle id="v327" type="taxi" route="r0" depart="163.5"/>
  <vehicle id="v328" type="taxi" route="r0" depart="164.0"/>
  <vehicle id="v329" type="taxi" route="r0" depart="164.5"/>
  <vehicle id="v330" type="taxi" route="r0" depart="165.0"/>
  <vehicle id="v331" type="taxi" route="r0" depart="165.5"/>
  <vehicle id="v332" type="taxi" route="r0" depart="166.0"/>
  <vehicle id="v333" type="taxi" route="r0" depart="166.5"/>
  <vehicle id="v334" type="taxi" route="r0" depart="167.0"/>
  <vehicle id="v335" type="taxi" route="r0" depart="167.5"/>
  <vehicle id="v336" type="taxi" route="r0" depart="168.0"/>
  <vehicle id="v337" type="taxi" route="r0" depart="168.5"/>
  <vehicle id="v338" type="taxi" route="r0" depart="169.0"/>
  <vehicle id="v339" type="taxi" route="r0" depart="169.5"/>
  <vehicle id="v340" type="taxi" route="r0" depart="170.0"/>
  <vehicle id="v341" type="taxi" route="r0" depart="170.5"/>
  <vehicle id="v342" type="taxi" route="r0" depart="171.0"/>
  <vehicle id="v343" type="taxi" route="r0" depart="171.5"/>
  <vehicle id="v344" type="taxi" route="r0" depart="172.0"/>
  <vehicle id="v345" type="taxi" route="r0" depart="172.5"/>
  <vehicle id="v346" type="taxi" route="r0" depart="173.0"/>
  <vehicle id="v347" type="taxi" route="r0" depart="173.5"/>
  <vehicle id="v348" type="taxi" route="r0" depart="174.0"/>
  <vehicle id="v349" type="taxi" route="r0" depart="174.5"/>
  <vehicle id="v350" type="taxi" route="r0" depart="175.0"/>
  <vehicle id="v351" type="taxi" route="r0" depart="175.5"/>
  <vehicle id="v352" type="taxi" route="r0" depart="176.0"/>
  <vehicle id="v353" type="taxi" route="r0" depart="176.5"/>
  <vehicle id="v354" type="taxi" route="r0" depart="177.0"/>
  <vehicle id="v355" type="taxi" route="r0" depart="177.5"/>
  <vehicle id="v356" type="taxi" route="r0" depart="178.0"/>
  <vehicle id="v357" type="taxi" route="r0" depart="178.5"/>
  <vehicle id="v358" type="taxi" route="r0" depart="179.0"/>
  <vehicle id="v359" type="taxi" route="r0" depart="179.5"/>
  <vehicle id="v360" type="taxi" route="r0" depart="180.0"/>
  <vehicle id="v361" type="taxi" route="r0" depart="180.5"/>
  <vehicle id="v362" type="taxi" route="r0" depart="181.0"/>
  <vehicle id="v363" type="taxi" route="r0" depart="181.5"/>
  <vehicle id="v364" type="taxi" route="r0" depart="182.0"/>
  <vehicle id="v365" type="taxi" route="r0" depart="182.5"/>
  <vehicle id="v366" type="taxi" route="r0" depart="183.0"/>
  <vehicle id="v367" type="taxi" route="r0" depart="183.5"/>
  <vehicle id="v368" type="taxi" route="r0" depart="184.0"/>
  <vehicle id="v369" type="taxi" route="r0" depart="184.5"/>
  <vehicle id="v370" type="taxi" route="r0" depart="185.0"/>
  <vehicle id="v371" type="taxi" route="r0" depart="185.5"/>
  <vehicle id="v372" type="taxi" route="r0" depart="186.0"/>
  <vehicle id="v373" type="taxi" route="r0" depart="186.5"/>
  <vehicle id="v374" type="taxi" route="r0" depart="187.0"/>
  <vehicle id="v375" type="taxi" route="r0" depart="187.5"/>
  <vehicle id="v376" type="taxi" route="r0" depart="188.0"/>
  <vehicle id="v377" type="taxi" route="r0" depart="188.5"/>
  <vehicle id="v378" type="taxi" route="r0" depart="189.0"/>
  <vehicle id="v379" type="taxi" route="r0" depart="189.5"/>
  <vehicle id="v380" type="taxi" route="r0" depart="190.0"/>
  <vehicle id="v381" type="taxi" route="r0" depart="190.5"/>
  <vehicle id="v382" type="taxi" route="r0" depart="191.0"/>
  <vehicle id="v383" type="taxi" route="r0" depart="191.5"/>
  <vehicle id="v384" type="taxi" route="r0" depart="192.0"/>
  <vehicle id="v385" type="taxi" route="r0" depart="192.5"/>
  <vehicle id="v386" type="taxi" route="r0" depart="193.0"/>
  <vehicle id="v387" type="taxi" route="r0" depart="193.5"/>
  <vehicle id="v388" type="taxi" route="r0" depart="194.0"/>
  <vehicle id="v389" type="taxi" route="r0" depart="194.5"/>
  <vehicle id="v390" type="taxi" route="r0" depart="195.0"/>
  <vehicle id="v391" type="taxi" route="r0" depart="195.5"/>
  <vehicle id="v392" type="taxi" route="r0" depart="196.0"/>
  <vehicle id="v393" type="taxi" route="r0" depart="196.5"/>
  <vehicle id="v394" type="taxi" route="r0" depart="197.0"/>
  <vehicle id="v395" type="taxi" route="r0" depart="197.5"/>
  <vehicle id="v396" type="taxi" route="r0" depart="198.0"/>
  <vehicle id="v397" type="taxi" route="r0" depart="198.5"/>
  <vehicle id="v398" type="taxi" route="r0" depart="199.0"/>
  <vehicle id="v399" type="taxi" route="r0" depart="199.5"/>
  <vehicle id="v400" type="taxi" route="r0" depart="200.0"/>
  <vehicle id="v401" type="taxi" route="r0" depart="200.5"/>
  <vehicle id="v402" type="taxi" route="r0" depart="201.0"/>
  <vehicle id="v403" type="taxi" route="r0" depart="201.5"/>
  <vehicle id="v404" type="taxi" route="r0" depart="202.0"/>
  <vehicle id="v405" type="taxi" route="r0" depart="202.5"/>
  <vehicle id="v406" type="taxi" route="r0" depart="203.0"/>
  <vehicle id="v407" type="taxi" route="r0" depart="203.5"/>
  <vehicle id="v408" type="taxi" route="r0" depart="204.0"/>
  <vehicle id="v409" type="taxi" route="r0" depart="204.5"/>
  <vehicle id="v410" type="taxi" route="r0" depart="205.0"/>
  <vehicle id="v411" type="taxi" route="r0" depart="205.5"/>
  <vehicle id="v412" type="taxi" route="r0" depart="206.0"/>
  <vehicle id="v413" type="taxi" route="r0" depart="206.5"/>
  <vehicle id="v414" type="taxi" route="r0" depart="207.0"/>
  <vehicle id="v415" type="taxi" route="r0" depart="207.5"/>
  <vehicle id="v416" type="taxi" route="r0" depart="208.0"/>
  <vehicle id="v417" type="taxi" route="r0" depart="208.5"/>
  <vehicle id="v418" type="taxi" route="r0" depart="209.0"/>
  <vehicle id="v419" type="taxi" route="r0" depart="209.5"/>
  <vehicle id="v420" type="taxi" route="r0" depart="210.0"/>
  <vehicle id="v421" type="taxi" route="r0" depart="210.5"/>
  <vehicle id="v422" type="taxi" route="r0" depart="211.0"/>
  <vehicle id="v423" type="taxi" route="r0" depart="211.5"/>
  <vehicle id="v424" type="taxi" route="r0" depart="212.0"/>
  <vehicle id="v425" type="taxi" route="r0" depart="212.5"/>
  <vehicle id="v426" type="taxi" route="r0" depart="213.0"/>
  <vehicle id="v427" type="taxi" route="r0" depart="213.5"/>
  <vehicle id="v428" type="taxi" route="r0" depart="214.0"/>
  <vehicle id="v429" type="taxi" route="r0" depart="214.5"/>
  <vehicle id="v430" type="taxi" route="r0" depart="215.0"/>
  <vehicle id="v431" type="taxi" route="r0" depart="215.5"/>
  <vehicle id="v432" type="taxi" route="r0" depart="216.0"/>
  <vehicle id="v433" type="taxi" route="r0" depart="216.5"/>
  <vehicle id="v434" type="taxi" route="r0" depart="217.0"/>
  <vehicle id="v435" type="taxi" route="r0" depart="217.5"/>
  <vehicle id="v436" type="taxi" route="r0" depart="218.0"/>
  <vehicle id="v437" type="taxi" route="r0" depart="218.5"/>
  <vehicle id="v438" type="taxi" route="r0" depart="219.0"/>
  <vehicle id="v439" type="taxi" route="r0" depart="219.5"/>
  <vehicle id="v440" type="taxi" route="r0" depart="220.0"/>
  <vehicle id="v441" type="taxi" route="r0" depart="220.5"/>
  <vehicle id="v442" type="taxi" route="r0" depart="221.0"/>
  <vehicle id="v443" type="taxi" route="r0" depart="221.5"/>
  <vehicle id="v444" type="taxi" route="r0" depart="222.0"/>
  <vehicle id="v445" type="taxi" route="r0" depart="222.5"/>
  <vehicle id="v446" type="taxi" route="r0" depart="223.0"/>
  <vehicle id="v447" type="taxi" route="r0" depart="223.5"/>
  <vehicle id="v448" type="taxi" route="r0" depart="224.0"/>
  <vehicle id="v449" type="taxi" route="r0" depart="224.5"/>
  <vehicle id="v450" type="taxi" route="r0" depart="225.0"/>
  <vehicle id="v451" type="taxi" route="r0" depart="225.5"/>
  <vehicle id="v452" type="taxi" route="r0" depart="226.0"/>
  <vehicle id="v453" type="taxi" route="r0" depart="226.5"/>
  <vehicle id="v454" type="taxi" route="r0" depart="227.0"/>
  <vehicle id="v455" type="taxi" route="r0" depart="227.5"/>
  <vehicle id="v456" type="taxi" route="r0" depart="228.0"/>
  <vehicle id="v457" type="taxi" route="r0" depart="228.5"/>
  <vehicle id="v458" type="taxi" route="r0" depart="229.0"/>
  <vehicle id="v459" type="taxi" route="r0" depart="229.5"/>
  <vehicle id="v460" type="taxi" route="r0" depart="230.0"/>
  <vehicle id="v461" type="taxi" route="r0" depart="230.5"/>
  <vehicle id="v462" type="taxi" route="r0" depart="231.0"/>
  <vehicle id="v463" type="taxi" route="r0" depart="231.5"/>
  <vehicle id="v464" type="taxi" route="r0" depart="232.0"/>
  <vehicle id="v465" type="taxi" route="r0" depart="232.5"/>
  <vehicle id="v466" type="taxi" route="r0" depart="233.0"/>
  <vehicle id="v467" type="taxi" route="r0" depart="233.5"/>
  <vehicle id="v468" type="taxi" route="r0" depart="234.0"/>
  <vehicle id="v469" type="taxi" route="r0" depart="234.5"/>
  <vehicle id="v470" type="taxi" route="r0" depart="235.0"/>
  <vehicle id="v471" type="taxi" route="r0" depart="235.5"/>
  <vehicle id="v472" type="taxi" route="r0" depart="236.0"/>
  <vehicle id="v473" type="taxi" route="r0" depart="236.5"/>
  <vehicle id="v474" type="taxi" route="r0" depart="237.0"/>
  <vehicle id="v475" type="taxi" route="r0" depart="237.5"/>
  <vehicle id="v476" type="taxi" route="r0" depart="238.0"/>
  <vehicle id="v477" type="taxi" route="r0" depart="238.5"/>
  <vehicle id="v478" type="taxi" route="r0" depart="239.0"/>
  <vehicle id="v479" type="taxi" route="r0" depart="239.5"/>
  <vehicle id="v480" type="taxi" route="r0" depart="240.0"/>
  <vehicle id="v481" type="taxi" route="r0" depart="240.5"/>
  <vehicle id="v482" type="taxi" route="r0" depart="241.0"/>
  <vehicle id="v483" type="taxi" route="r0" depart="241.5"/>
  <vehicle id="v484" type="taxi" route="r0" depart="242.0"/>
  <vehicle id="v485" type="taxi" route="r0" depart="242.5"/>
  <vehicle id="v486" type="taxi" route="r0" depart="243.0"/>
  <vehicle id="v487" type="taxi" route="r0" depart="243.5"/>
  <vehicle id="v488" type="taxi" route="r0" depart="244.0"/>
  <vehicle id="v489" type="taxi" route="r0" depart="244.5"/>
  <vehicle id="v490" type="taxi" route="r0" depart="245.0"/>
  <vehicle id="v491" type="taxi" route="r0" depart="245.5"/>
  <vehicle id="v492" type="taxi" route="r0" depart="246.0"/>