<?xml version="1.0" encoding="UTF-8"?>
<configuration xmlns:xsi="http://www.w3.org/2001/XMLSchema-instance" xsi:noNamespaceSchemaLocation="http://sumo.dlr.de/xsd/sumoConfiguration.xsd">
    <input>
        <net-file value="generated_grid3x3.net.xml"/>
        <route-files value="yeoksam_after.rou.xml"/>
    </input>
    <time>
        <begin value="0"/>
        <end value="2400"/>
    </time>
    <report>
        <no-step-log value="true"/>
    </report>
</configuration>
