<?xml version="1.0" ?>
<routes>
  <vType id="taxi" accel="2.6" decel="4.5" sigma="0.5" length="5" minGap="2.5" maxSpeed="13.89" color="255,165,0"/>
  <route id="north_west" edges="A0A1"/>
  <route id="north_center" edges="A1B1"/>
  <route id="north_east" edges="A2B2"/>
  <route id="middle_west" edges="B0B1"/>
  <route id="middle_center" edges="B1C1"/>
  <route id="middle_east" edges="B1B2"/>
  <route id="south_west" edges="C0B0"/>
  <route id="south_center" edges="C1B1"/>
  <route id="south_east" edges="C2B2"/>
  <vehicle id="after_B2_000" type="taxi" route="middle_center" depart="0.0"/>
  <vehicle id="after_C2_000" type="taxi" route="south_center" depart="0.0"/>
  <vehicle id="after_A2_000" type="taxi" route="north_center" depart="0.0"/>
  <vehicle id="after_B3_000" type="taxi" route="middle_east" depart="0.0"/>
  <vehicle id="after_A3_000" type="taxi" route="north_east" depart="0.0"/>
  <vehicle id="after_B1_000" type="taxi" route="middle_west" depart="0.0"/>
  <vehicle id="after_C1_000" type="taxi" route="south_west" depart="0.0"/>
  <vehicle id="after_C3_000" type="taxi" route="south_east" depart="0.0"/>
  <vehicle id="after_A1_000" type="taxi" route="north_west" depart="0.0"/>
  <vehicle id="after_B2_001" type="taxi" route="middle_center" depart="300.0"/>
  <vehicle id="after_B2_002" type="taxi" route="middle_center" depart="600.0"/>
  <vehicle id="after_C2_001" type="taxi" route="south_center" depart="600.0"/>
  <vehicle id="after_A2_001" type="taxi" route="north_center" depart="600.0"/>
  <vehicle id="after_B3_001" type="taxi" route="middle_east" depart="600.0"/>
  <vehicle id="after_B2_003" type="taxi" route="middle_center" depart="900.0"/>
  <vehicle id="after_A3_001" type="taxi" route="north_east" depart="900.0"/>
  <vehicle id="after_B2_004" type="taxi" route="middle_center" depart="1200.0"/>
  <vehicle id="after_C2_002" type="taxi" route="south_center" depart="1200.0"/>
  <vehicle id="after_A2_002" type="taxi" route="north_center" depart="1200.0"/>
  <vehicle id="after_B3_002" type="taxi" route="middle_east" depart="1200.0"/>
  <vehicle id="after_B2_005" type="taxi" route="middle_center" depart="1500.0"/>
  <vehicle id="after_B2_006" type="taxi" route="middle_center" depart="1800.0"/>
  <vehicle id="after_C2_003" type="taxi" route="south_center" depart="1800.0"/>
  <vehicle id="after_A2_003" type="taxi" route="north_center" depart="1800.0"/>
  <vehicle id="after_B3_003" type="taxi" route="middle_east" depart="1800.0"/>
  <vehicle id="after_A3_002" type="taxi" route="north_east" depart="1800.0"/>
  <vehicle id="after_B1_001" type="taxi" route="middle_west" depart="1800.0"/>
  <vehicle id="after_C3_001" type="taxi" route="south_east" depart="1800.0"/>
</routes>
